Circuit: * C:\users\dimfred\Desktop\workspaces\uni\ma\ltspice_circuits\Draft4.asc

Direct Newton iteration for .op point succeeded.

Date: Mon Mar 29 13:18:53 2021
Total elapsed time: 0.055 seconds.

tnom = 27
temp = 27
method = modified trap
totiter = 2099
traniter = 2096
tranpoints = 1049
accept = 1049
rejected = 0
matrix size = 2
fillins = 0
solver = Normal
Matrix Compiler1: 36 bytes object code size  0.5/0.5/[0.5]
Matrix Compiler2: off  [0.5]/0.5/0.5

